
OS:Version,
  {ed23ed3c-a98e-45c4-bd82-62a30a51a77f}, !- Handle
  2.1.0;                                  !- Version Identifier

OS:Site,
  {f9ddda8a-7be0-47bc-875c-483746952320}, !- Handle
  Miami Intl Ap_FL_USA,                   !- Name
  25.82,                                  !- Latitude {deg}
  -80.3,                                  !- Longitude {deg}
  -5,                                     !- Time Zone {hr}
  11,                                     !- Elevation {m}
  City;                                   !- Terrain

OS:SimulationControl,
  {4ca6b2dd-2a3a-43b3-a05d-2a63c7274d0f}, !- Handle
  Yes,                                    !- Do Zone Sizing Calculation
  Yes,                                    !- Do System Sizing Calculation
  Yes,                                    !- Do Plant Sizing Calculation
  No,                                     !- Run Simulation for Sizing Periods
  Yes,                                    !- Run Simulation for Weather File Run Periods
  0.04,                                   !- Loads Convergence Tolerance Value
  0.2,                                    !- Temperature Convergence Tolerance Value {deltaC}
  FullInteriorAndExterior,                !- Solar Distribution
  25,                                     !- Maximum Number of Warmup Days
  6;                                      !- Minimum Number of Warmup Days

OS:Surface,
  {f2a5f8a7-a27b-47c8-a774-d7c7be045ae4}, !- Handle
  P_FrontStorageFlr1_10091_0_10058,       !- Name
  Wall,                                   !- Surface Type
  ,                                       !- Construction Name
  {d7fd3884-3d01-4c41-934b-c8e9dd0ad426}, !- Space Name
  Surface,                                !- Outside Boundary Condition
  {ca23c82e-4531-4f34-b555-91b4273a0a67}, !- Outside Boundary Condition Object
  NoSun,                                  !- Sun Exposure
  NoWind,                                 !- Wind Exposure
  ,                                       !- View Factor to Ground
  ,                                       !- Number of Vertices
  2.4871, 18.3374, 3.3528,                !- X,Y,Z Vertex 1 {m}
  2.4871, 18.3374, 0,                     !- X,Y,Z Vertex 2 {m}
  2.4871, 10.1078, 0,                     !- X,Y,Z Vertex 3 {m}
  2.4871, 10.1078, 3.3528;                !- X,Y,Z Vertex 4 {m}

OS:Space,
  {d7fd3884-3d01-4c41-934b-c8e9dd0ad426}, !- Handle
  FrontStorageFlr1,                       !- Name
  {73c7f225-b651-4a7d-9169-3a07033ed6ad}, !- Space Type Name
  ,                                       !- Default Construction Set Name
  ,                                       !- Default Schedule Set Name
  0,                                      !- Direction of Relative North {deg}
  0,                                      !- X Origin {m}
  0,                                      !- Y Origin {m}
  0,                                      !- Z Origin {m}
  {9ad76d2d-f762-4785-b7f3-e3d8013882d5}, !- Building Story Name
  {a84f538c-4ae1-4b75-93c8-43f5606e7888}, !- Thermal Zone Name
  Yes;                                    !- Part of Total Floor Area

OS:Surface,
  {682b0138-5aee-40a2-adee-a2642b0b3a3e}, !- Handle
  P_CorridorFlr3_13_0_0,                  !- Name
  Wall,                                   !- Surface Type
  ,                                       !- Construction Name
  {be98726e-deca-4330-809d-0baa157e24e3}, !- Space Name
  Surface,                                !- Outside Boundary Condition
  {1e277f57-a59a-42d3-819d-0faa6dac2d4f}, !- Outside Boundary Condition Object
  NoSun,                                  !- Sun Exposure
  NoWind,                                 !- Wind Exposure
  ,                                       !- View Factor to Ground
  ,                                       !- Number of Vertices
  4.0111, 10.1078, 8.8392,                !- X,Y,Z Vertex 1 {m}
  4.0111, 10.1078, 6.096,                 !- X,Y,Z Vertex 2 {m}
  2.4871, 10.1078, 6.096,                 !- X,Y,Z Vertex 3 {m}
  2.4871, 10.1078, 8.8392;                !- X,Y,Z Vertex 4 {m}

OS:Space,
  {be98726e-deca-4330-809d-0baa157e24e3}, !- Handle
  CorridorFlr3,                           !- Name
  {3edd6b8a-b35d-4fc5-b212-9268125f5c5a}, !- Space Type Name
  ,                                       !- Default Construction Set Name
  ,                                       !- Default Schedule Set Name
  0,                                      !- Direction of Relative North {deg}
  0,                                      !- X Origin {m}
  0,                                      !- Y Origin {m}
  0,                                      !- Z Origin {m}
  {2572b8e5-305c-47fa-9c0e-a192bde3c850}, !- Building Story Name
  {ad2975fe-64da-4be0-b3b9-568bae51977b}, !- Thermal Zone Name
  Yes;                                    !- Part of Total Floor Area

OS:Surface,
  {0898f8e2-0305-4d2c-aa79-b692c4136d5b}, !- Handle
  P_GuestRoom104_10002_0_10001,           !- Name
  Wall,                                   !- Surface Type
  ,                                       !- Construction Name
  {c862e6a3-2630-4e56-82ee-d0f05f77cdd8}, !- Space Name
  Surface,                                !- Outside Boundary Condition
  {2d919b57-429f-4dd4-b927-d048e28c0ea1}, !- Outside Boundary Condition Object
  NoSun,                                  !- Sun Exposure
  NoWind,                                 !- Wind Exposure
  ,                                       !- View Factor to Ground
  ,                                       !- Number of Vertices
  52.4743, 10.1078, 3.3528,               !- X,Y,Z Vertex 1 {m}
  52.4743, 10.1078, 0,                    !- X,Y,Z Vertex 2 {m}
  52.4743, 18.3374, 0,                    !- X,Y,Z Vertex 3 {m}
  52.4743, 18.3374, 3.3528;               !- X,Y,Z Vertex 4 {m}

OS:Space,
  {c862e6a3-2630-4e56-82ee-d0f05f77cdd8}, !- Handle
  GuestRoom104,                           !- Name
  {7f67253b-3998-43f4-9164-28f6bc880faa}, !- Space Type Name
  ,                                       !- Default Construction Set Name
  ,                                       !- Default Schedule Set Name
  0,                                      !- Direction of Relative North {deg}
  0,                                      !- X Origin {m}
  0,                                      !- Y Origin {m}
  0,                                      !- Z Origin {m}
  {9ad76d2d-f762-4785-b7f3-e3d8013882d5}, !- Building Story Name
  {6ad563d3-5c17-4195-9798-d0e21d67fc56}, !- Thermal Zone Name
  Yes;                                    !- Part of Total Floor Area

OS:Space,
  {e3fa0126-4578-432e-b037-386d2979d41c}, !- Handle
  RestroomFlr1,                           !- Name
  {81049123-03d7-4d16-92d4-29e75623721b}, !- Space Type Name
  ,                                       !- Default Construction Set Name
  ,                                       !- Default Schedule Set Name
  0,                                      !- Direction of Relative North {deg}
  0,                                      !- X Origin {m}
  0,                                      !- Y Origin {m}
  0,                                      !- Z Origin {m}
  {9ad76d2d-f762-4785-b7f3-e3d8013882d5}, !- Building Story Name
  {068abc44-3446-4e3d-9085-ab1d8eebc58e}, !- Thermal Zone Name
  Yes;                                    !- Part of Total Floor Area

OS:SubSurface,
  {a1f803c5-fc0f-4b00-aec6-a2fb776e4825}, !- Handle
  W_GuestRoom102_5_0_0_0_0,               !- Name
  FixedWindow,                            !- Sub Surface Type
  {0efbdaac-0872-4020-b3b4-31abede2cb9e}, !- Construction Name
  {dcdf0c15-a1c6-4f52-a0f7-77ab99ca34bf}, !- Surface Name
  ,                                       !- Outside Boundary Condition Object
  ,                                       !- View Factor to Ground
  ,                                       !- Shading Control Name
  ,                                       !- Frame and Divider Name
  1,                                      !- Multiplier
  ,                                       !- Number of Vertices
  45.961, 0.0488, 2.3984,                 !- X,Y,Z Vertex 1 {m}
  45.961, 0.0488, 0.9544,                 !- X,Y,Z Vertex 2 {m}
  47.1, 0.0488, 0.9544,                   !- X,Y,Z Vertex 3 {m}
  47.1, 0.0488, 2.3984;                   !- X,Y,Z Vertex 4 {m}

OS:Surface,
  {dcdf0c15-a1c6-4f52-a0f7-77ab99ca34bf}, !- Handle
  W_GuestRoom102_5_0_0,                   !- Name
  Wall,                                   !- Surface Type
  ,                                       !- Construction Name
  {28d53fff-3d85-4beb-8d14-d51fa08963d5}, !- Space Name
  Outdoors,                               !- Outside Boundary Condition
  ,                                       !- Outside Boundary Condition Object
  SunExposed,                             !- Sun Exposure
  WindExposed,                            !- Wind Exposure
  ,                                       !- View Factor to Ground
  ,                                       !- Number of Vertices
  44.5495, 0.0488, 3.3528,                !- X,Y,Z Vertex 1 {m}
  44.5495, 0.0488, 0,                     !- X,Y,Z Vertex 2 {m}
  48.5119, 0.0488, 0,                     !- X,Y,Z Vertex 3 {m}
  48.5119, 0.0488, 3.3528;                !- X,Y,Z Vertex 4 {m}

OS:Space,
  {28d53fff-3d85-4beb-8d14-d51fa08963d5}, !- Handle
  GuestRoom102,                           !- Name
  {7f67253b-3998-43f4-9164-28f6bc880faa}, !- Space Type Name
  ,                                       !- Default Construction Set Name
  ,                                       !- Default Schedule Set Name
  0,                                      !- Direction of Relative North {deg}
  0,                                      !- X Origin {m}
  0,                                      !- Y Origin {m}
  0,                                      !- Z Origin {m}
  {9ad76d2d-f762-4785-b7f3-e3d8013882d5}, !- Building Story Name
  {9b83d8af-d58f-40b8-9a6e-593c92b671bd}, !- Thermal Zone Name
  Yes;                                    !- Part of Total Floor Area

OS:Surface,
  {5ab077c9-66a9-4e35-9399-930401d19883}, !- Handle
  P_CorridorFlr1_25_0_0,                  !- Name
  Wall,                                   !- Surface Type
  ,                                       !- Construction Name
  {3bae0081-b7be-44af-8ec5-bbbfa7470737}, !- Space Name
  Surface,                                !- Outside Boundary Condition
  {e3ac7e57-7d7b-452b-b788-4a1c00a5515d}, !- Outside Boundary Condition Object
  NoSun,                                  !- Sun Exposure
  NoWind,                                 !- Wind Exposure
  ,                                       !- View Factor to Ground
  ,                                       !- Number of Vertices
  44.5495, 8.279, 3.3528,                 !- X,Y,Z Vertex 1 {m}
  44.5495, 8.279, 0,                      !- X,Y,Z Vertex 2 {m}
  48.5119, 8.279, 0,                      !- X,Y,Z Vertex 3 {m}
  48.5119, 8.279, 3.3528;                 !- X,Y,Z Vertex 4 {m}

OS:Space,
  {3bae0081-b7be-44af-8ec5-bbbfa7470737}, !- Handle
  CorridorFlr1,                           !- Name
  {3edd6b8a-b35d-4fc5-b212-9268125f5c5a}, !- Space Type Name
  ,                                       !- Default Construction Set Name
  ,                                       !- Default Schedule Set Name
  0,                                      !- Direction of Relative North {deg}
  0,                                      !- X Origin {m}
  0,                                      !- Y Origin {m}
  0,                                      !- Z Origin {m}
  {9ad76d2d-f762-4785-b7f3-e3d8013882d5}, !- Building Story Name
  {3e015447-2185-47a3-825d-4a5554f8cfab}, !- Thermal Zone Name
  Yes;                                    !- Part of Total Floor Area

OS:Surface,
  {70d59439-100f-492e-ab8f-837d37dce9df}, !- Handle
  P_GuestRoom413_10321_0_10172,           !- Name
  Wall,                                   !- Surface Type
  ,                                       !- Construction Name
  {f5126321-7ca3-40cf-83bf-28f335b64926}, !- Space Name
  Surface,                                !- Outside Boundary Condition
  {779163e6-495a-4988-9f7a-39413bdab46a}, !- Outside Boundary Condition Object
  NoSun,                                  !- Sun Exposure
  NoWind,                                 !- Wind Exposure
  ,                                       !- View Factor to Ground
  ,                                       !- Number of Vertices
  48.5119, 8.279, 11.5824,                !- X,Y,Z Vertex 1 {m}
  48.5119, 8.279, 8.8392,                 !- X,Y,Z Vertex 2 {m}
  48.5119, 0.0488, 8.8392,                !- X,Y,Z Vertex 3 {m}
  48.5119, 0.0488, 11.5824;               !- X,Y,Z Vertex 4 {m}

OS:Space,
  {f5126321-7ca3-40cf-83bf-28f335b64926}, !- Handle
  GuestRoom413,                           !- Name
  {7f67253b-3998-43f4-9164-28f6bc880faa}, !- Space Type Name
  ,                                       !- Default Construction Set Name
  ,                                       !- Default Schedule Set Name
  0,                                      !- Direction of Relative North {deg}
  0,                                      !- X Origin {m}
  0,                                      !- Y Origin {m}
  0,                                      !- Z Origin {m}
  {b0740ef3-0984-4127-b8c9-3da7860420d8}, !- Building Story Name
  {60aed96b-0714-4701-b927-52cfb2ebfd42}, !- Thermal Zone Name
  Yes;                                    !- Part of Total Floor Area

OS:Surface,
  {e6303efc-7ebd-450b-a425-d2f842f1c174}, !- Handle
  R_GuestRoom424_1_0_0,                   !- Name
  RoofCeiling,                            !- Surface Type
  ,                                       !- Construction Name
  {f29eb214-ef7e-4625-8f11-d1bceabfd3b0}, !- Space Name
  Outdoors,                               !- Outside Boundary Condition
  ,                                       !- Outside Boundary Condition Object
  SunExposed,                             !- Sun Exposure
  WindExposed,                            !- Wind Exposure
  ,                                       !- View Factor to Ground
  ,                                       !- Number of Vertices
  7.9735, 10.1078, 11.5824,               !- X,Y,Z Vertex 1 {m}
  7.9735, 18.3374, 11.5824,               !- X,Y,Z Vertex 2 {m}
  4.0111, 18.3374, 11.5824,               !- X,Y,Z Vertex 3 {m}
  4.0111, 10.1078, 11.5824;               !- X,Y,Z Vertex 4 {m}

OS:Space,
  {f29eb214-ef7e-4625-8f11-d1bceabfd3b0}, !- Handle
  GuestRoom424,                           !- Name
  {7f67253b-3998-43f4-9164-28f6bc880faa}, !- Space Type Name
  ,                                       !- Default Construction Set Name
  ,                                       !- Default Schedule Set Name
  0,                                      !- Direction of Relative North {deg}
  0,                                      !- X Origin {m}
  0,                                      !- Y Origin {m}
  0,                                      !- Z Origin {m}
  {b0740ef3-0984-4127-b8c9-3da7860420d8}, !- Building Story Name
  {3ae9bcc5-77e5-49f9-a12c-40644eacfe37}, !- Thermal Zone Name
  Yes;                                    !- Part of Total Floor Area

OS:Surface,
  {2ea92ee4-76e4-43b3-a848-3c7ebda7824f}, !- Handle
  W_GuestRoom201_4_0_0,                   !- Name
  Wall,                                   !- Surface Type
  ,                                       !- Construction Name
  {86fb838f-7f0a-4431-a67b-9a1fef7a3277}, !- Space Name
  Outdoors,                               !- Outside Boundary Condition
  ,                                       !- Outside Boundary Condition Object
  SunExposed,                             !- Sun Exposure
  WindExposed,                            !- Wind Exposure
  ,                                       !- View Factor to Ground
  ,                                       !- Number of Vertices
  0.0487, 8.279, 6.096,                   !- X,Y,Z Vertex 1 {m}
  0.0487, 8.279, 3.3528,                  !- X,Y,Z Vertex 2 {m}
  0.0487, 0.0488, 3.3528,                 !- X,Y,Z Vertex 3 {m}
  0.0487, 0.0488, 6.096;                  !- X,Y,Z Vertex 4 {m}

OS:Space,
  {86fb838f-7f0a-4431-a67b-9a1fef7a3277}, !- Handle
  GuestRoom201,                           !- Name
  {7f67253b-3998-43f4-9164-28f6bc880faa}, !- Space Type Name
  ,                                       !- Default Construction Set Name
  ,                                       !- Default Schedule Set Name
  0,                                      !- Direction of Relative North {deg}
  0,                                      !- X Origin {m}
  0,                                      !- Y Origin {m}
  0,                                      !- Z Origin {m}
  {7e98a068-81e7-4c0c-baf3-731a3ddd9065}, !- Building Story Name
  {f82390a9-6a5e-4469-a8c5-9551cb414949}, !- Thermal Zone Name
  Yes;                                    !- Part of Total Floor Area

OS:Surface,
  {4aff177a-3fcc-4b25-8284-b4d648f73743}, !- Handle
  W_GuestRoom301_4_0_0,                   !- Name
  Wall,                                   !- Surface Type
  ,                                       !- Construction Name
  {7b939ddc-7e5f-482c-a57d-e83f870625ee}, !- Space Name
  Outdoors,                               !- Outside Boundary Condition
  ,                                       !- Outside Boundary Condition Object
  SunExposed,                             !- Sun Exposure
  WindExposed,                            !- Wind Exposure
  ,                                       !- View Factor to Ground
  ,                                       !- Number of Vertices
  0.0487, 8.279, 8.8392,                  !- X,Y,Z Vertex 1 {m}
  0.0487, 8.279, 6.096,                   !- X,Y,Z Vertex 2 {m}
  0.0487, 0.0488, 6.096,                  !- X,Y,Z Vertex 3 {m}
  0.0487, 0.0488, 8.8392;                 !- X,Y,Z Vertex 4 {m}

OS:Space,
  {7b939ddc-7e5f-482c-a57d-e83f870625ee}, !- Handle
  GuestRoom301,                           !- Name
  {7f67253b-3998-43f4-9164-28f6bc880faa}, !- Space Type Name
  ,                                       !- Default Construction Set Name
  ,                                       !- Default Schedule Set Name
  0,                                      !- Direction of Relative North {deg}
  0,                                      !- X Origin {m}
  0,                                      !- Y Origin {m}
  0,                                      !- Z Origin {m}
  {2572b8e5-305c-47fa-9c0e-a192bde3c850}, !- Building Story Name
  {657ed37e-1960-4574-b631-304fefaa0cc3}, !- Thermal Zone Name
  Yes;                                    !- Part of Total Floor Area

OS:Surface,
  {130bd759-c2cc-455f-94ac-86f56a7fb849}, !- Handle
  W_GuestRoom214_3_0_0,                   !- Name
  Wall,                                   !- Surface Type
  ,                                       !- Construction Name
  {f4d752fb-c00f-47df-94fa-1411bf4602d3}, !- Space Name
  Outdoors,                               !- Outside Boundary Condition
  ,                                       !- Outside Boundary Condition Object
  SunExposed,                             !- Sun Exposure
  WindExposed,                            !- Wind Exposure
  ,                                       !- View Factor to Ground
  ,                                       !- Number of Vertices
  52.4743, 18.3374, 6.096,                !- X,Y,Z Vertex 1 {m}
  52.4743, 18.3374, 3.3528,               !- X,Y,Z Vertex 2 {m}
  48.5119, 18.3374, 3.3528,               !- X,Y,Z Vertex 3 {m}
  48.5119, 18.3374, 6.096;                !- X,Y,Z Vertex 4 {m}

OS:Space,
  {f4d752fb-c00f-47df-94fa-1411bf4602d3}, !- Handle
  GuestRoom214,                           !- Name
  {7f67253b-3998-43f4-9164-28f6bc880faa}, !- Space Type Name
  ,                                       !- Default Construction Set Name
  ,                                       !- Default Schedule Set Name
  0,                                      !- Direction of Relative North {deg}
  0,                                      !- X Origin {m}
  0,                                      !- Y Origin {m}
  0,                                      !- Z Origin {m}
  {7e98a068-81e7-4c0c-baf3-731a3ddd9065}, !- Building Story Name
  {ee672858-1233-4851-8323-cc2667efaf27}, !- Thermal Zone Name
  Yes;                                    !- Part of Total Floor Area

OS:SubSurface,
  {c93b06b3-6af0-4ba6-8d76-2c9705ec7a2b}, !- Handle
  W_GuestRoom401_5_0_0_0_0,               !- Name
  FixedWindow,                            !- Sub Surface Type
  {0efbdaac-0872-4020-b3b4-31abede2cb9e}, !- Construction Name
  {d86dcc73-a35e-4630-baf4-e777dffa9618}, !- Surface Name
  ,                                       !- Outside Boundary Condition Object
  ,                                       !- View Factor to Ground
  ,                                       !- Shading Control Name
  ,                                       !- Frame and Divider Name
  1,                                      !- Multiplier
  ,                                       !- Number of Vertices
  1.46, 0.0488, 10.9328,                  !- X,Y,Z Vertex 1 {m}
  1.46, 0.0488, 9.4888,                   !- X,Y,Z Vertex 2 {m}
  2.599, 0.0488, 9.4888,                  !- X,Y,Z Vertex 3 {m}
  2.599, 0.0488, 10.9328;                 !- X,Y,Z Vertex 4 {m}

OS:Surface,
  {d86dcc73-a35e-4630-baf4-e777dffa9618}, !- Handle
  W_GuestRoom401_5_0_0,                   !- Name
  Wall,                                   !- Surface Type
  ,                                       !- Construction Name
  {6f9a429e-9e1f-4e95-a234-cfb46757af27}, !- Space Name
  Outdoors,                               !- Outside Boundary Condition
  ,                                       !- Outside Boundary Condition Object
  SunExposed,                             !- Sun Exposure
  WindExposed,                            !- Wind Exposure
  ,                                       !- View Factor to Ground
  ,                                       !- Number of Vertices
  0.0487, 0.0488, 11.5824,                !- X,Y,Z Vertex 1 {m}
  0.0487, 0.0488, 8.8392,                 !- X,Y,Z Vertex 2 {m}
  4.0111, 0.0488, 8.8392,                 !- X,Y,Z Vertex 3 {m}
  4.0111, 0.0488, 11.5824;                !- X,Y,Z Vertex 4 {m}

OS:Space,
  {6f9a429e-9e1f-4e95-a234-cfb46757af27}, !- Handle
  GuestRoom401,                           !- Name
  {7f67253b-3998-43f4-9164-28f6bc880faa}, !- Space Type Name
  ,                                       !- Default Construction Set Name
  ,                                       !- Default Schedule Set Name
  0,                                      !- Direction of Relative North {deg}
  0,                                      !- X Origin {m}
  0,                                      !- Y Origin {m}
  0,                                      !- Z Origin {m}
  {b0740ef3-0984-4127-b8c9-3da7860420d8}, !- Building Story Name
  {ceef513f-fc71-4a8d-a98d-464d8c0d8296}, !- Thermal Zone Name
  Yes;                                    !- Part of Total Floor Area

OS:SubSurface,
  {726e8029-0e47-426a-8a31-229975f100d5}, !- Handle
  W_MeetingRoomFlr1_5_0_0_0_2,            !- Name
  FixedWindow,                            !- Sub Surface Type
  {0efbdaac-0872-4020-b3b4-31abede2cb9e}, !- Construction Name
  {b05bd07a-b97e-4835-81fb-0c8a3e6afba3}, !- Surface Name
  ,                                       !- Outside Boundary Condition Object
  ,                                       !- View Factor to Ground
  ,                                       !- Shading Control Name
  ,                                       !- Frame and Divider Name
  1,                                      !- Multiplier
  ,                                       !- Number of Vertices
  31.178, 0.0488, 2.3984,                 !- X,Y,Z Vertex 1 {m}
  31.178, 0.0488, 0.9544,                 !- X,Y,Z Vertex 2 {m}
  32.318, 0.0488, 0.9544,                 !- X,Y,Z Vertex 3 {m}
  32.318, 0.0488, 2.3984;                 !- X,Y,Z Vertex 4 {m}

OS:Surface,
  {b05bd07a-b97e-4835-81fb-0c8a3e6afba3}, !- Handle
  W_MeetingRoomFlr1_5_0_0,                !- Name
  Wall,                                   !- Surface Type
  ,                                       !- Construction Name
  {e8de2361-b7b4-47d9-9eee-89fd87fd9338}, !- Space Name
  Outdoors,                               !- Outside Boundary Condition
  ,                                       !- Outside Boundary Condition Object
  SunExposed,                             !- Sun Exposure
  WindExposed,                            !- Wind Exposure
  ,                                       !- View Factor to Ground
  ,                                       !- Number of Vertices
  26.8711, 0.0488, 3.3528,                !- X,Y,Z Vertex 1 {m}
  26.8711, 0.0488, 0,                     !- X,Y,Z Vertex 2 {m}
  36.6247, 0.0488, 0,                     !- X,Y,Z Vertex 3 {m}
  36.6247, 0.0488, 3.3528;                !- X,Y,Z Vertex 4 {m}

OS:Space,
  {e8de2361-b7b4-47d9-9eee-89fd87fd9338}, !- Handle
  MeetingRoomFlr1,                        !- Name
  {394ec322-e43c-4147-8e8d-ad0a5a8b3cf0}, !- Space Type Name
  ,                                       !- Default Construction Set Name
  ,                                       !- Default Schedule Set Name
  0,                                      !- Direction of Relative North {deg}
  0,                                      !- X Origin {m}
  0,                                      !- Y Origin {m}
  0,                                      !- Z Origin {m}
  {9ad76d2d-f762-4785-b7f3-e3d8013882d5}, !- Building Story Name
  {f470408d-5f8e-4007-af67-1e15da7fe141}, !- Thermal Zone Name
  Yes;                                    !- Part of Total Floor Area

OS:SubSurface,
  {328eae8f-7134-482a-aa2f-67847802da65}, !- Handle
  W_CorridorFlr1_20_0_0_0_0,              !- Name
  FixedWindow,                            !- Sub Surface Type
  {0efbdaac-0872-4020-b3b4-31abede2cb9e}, !- Construction Name
  {15690790-07ef-434b-b389-d5240423bbbb}, !- Surface Name
  ,                                       !- Outside Boundary Condition Object
  ,                                       !- View Factor to Ground
  ,                                       !- Shading Control Name
  ,                                       !- Frame and Divider Name
  1,                                      !- Multiplier
  ,                                       !- Number of Vertices
  24.777, 0.0488, 2.5508,                 !- X,Y,Z Vertex 1 {m}
  24.777, 0.0488, 0.1924,                 !- X,Y,Z Vertex 2 {m}
  25.917, 0.0488, 0.1924,                 !- X,Y,Z Vertex 3 {m}
  25.917, 0.0488, 2.5508;                 !- X,Y,Z Vertex 4 {m}

OS:Surface,
  {15690790-07ef-434b-b389-d5240423bbbb}, !- Handle
  W_CorridorFlr1_20_0_0,                  !- Name
  Wall,                                   !- Surface Type
  ,                                       !- Construction Name
  {3bae0081-b7be-44af-8ec5-bbbfa7470737}, !- Space Name
  Outdoors,                               !- Outside Boundary Condition
  ,                                       !- Outside Boundary Condition Object
  SunExposed,                             !- Sun Exposure
  WindExposed,                            !- Wind Exposure
  ,                                       !- View Factor to Ground
  ,                                       !- Number of Vertices
  23.8231, 0.0488, 3.3528,                !- X,Y,Z Vertex 1 {m}
  23.8231, 0.0488, 0,                     !- X,Y,Z Vertex 2 {m}
  26.8711, 0.0488, 0,                     !- X,Y,Z Vertex 3 {m}
  26.8711, 0.0488, 3.3528;                !- X,Y,Z Vertex 4 {m}

OS:Space,
  {303fa087-8515-448a-a486-acb78a49749d}, !- Handle
  GuestRoom101,                           !- Name
  {7f67253b-3998-43f4-9164-28f6bc880faa}, !- Space Type Name
  ,                                       !- Default Construction Set Name
  ,                                       !- Default Schedule Set Name
  0,                                      !- Direction of Relative North {deg}
  0,                                      !- X Origin {m}
  0,                                      !- Y Origin {m}
  0,                                      !- Z Origin {m}
  {9ad76d2d-f762-4785-b7f3-e3d8013882d5}, !- Building Story Name
  {5c470e89-3a04-4ce0-ab6b-4e51cc789f47}, !- Thermal Zone Name
  Yes;                                    !- Part of Total Floor Area

OS:Space,
  {02a4968e-2121-4303-bf03-50b2fa5f3a6e}, !- Handle
  GuestRoom406_408,                       !- Name
  {7f67253b-3998-43f4-9164-28f6bc880faa}, !- Space Type Name
  ,                                       !- Default Construction Set Name
  ,                                       !- Default Schedule Set Name
  0,                                      !- Direction of Relative North {deg}
  0,                                      !- X Origin {m}
  0,                                      !- Y Origin {m}
  0,                                      !- Z Origin {m}
  {b0740ef3-0984-4127-b8c9-3da7860420d8}, !- Building Story Name
  {4790d5b8-7633-4448-8383-f13050e56a4f}, !- Thermal Zone Name
  Yes;                                    !- Part of Total Floor Area

OS:Space,
  {4e5eda92-cf7d-4637-a91c-832b5282d790}, !- Handle
  GuestRoom414,                           !- Name
  {7f67253b-3998-43f4-9164-28f6bc880faa}, !- Space Type Name
  ,                                       !- Default Construction Set Name
  ,                                       !- Default Schedule Set Name
  0,                                      !- Direction of Relative North {deg}
  0,                                      !- X Origin {m}
  0,                                      !- Y Origin {m}
  0,                                      !- Z Origin {m}
  {b0740ef3-0984-4127-b8c9-3da7860420d8}, !- Building Story Name
  {bfb27f03-54be-42aa-80af-309d479f2bef}, !- Thermal Zone Name
  Yes;                                    !- Part of Total Floor Area

OS:Space,
  {2a505c8a-c0b6-4757-ad05-537e723464cc}, !- Handle
  ExerciseCenterFlr1,                     !- Name